Circuit: * Z:\home\vs\Downloads\tempsens\cascade_amp.asc

Warning: Multiple definitions of model "2scr375p" Type: BJT
Warning: Multiple definitions of model "bc857b" Type: BJT
Warning: Multiple definitions of model "bc847c" Type: BJT
Warning: Multiple definitions of model "bc847b" Type: BJT
Direct Newton iteration for .op point succeeded.

Date: Fri Apr 19 15:38:42 2024
Total elapsed time: 0.185 seconds.

tnom = 27
temp = 27
method = modified trap
totiter = 2127
traniter = 2121
tranpoints = 1061
accept = 1059
rejected = 2
matrix size = 19
fillins = 3
solver = Normal
Matrix Compiler1: 1.32 KB object code size  0.3/0.3/[0.2]
Matrix Compiler2: off  [0.2]/0.3/0.2

