Circuit: * Z:\home\vs\Downloads\tempsens\Draft5.asc

Warning: Multiple definitions of model "2scr375p" Type: BJT
Warning: Multiple definitions of model "bc857b" Type: BJT
Warning: Multiple definitions of model "bc847c" Type: BJT
Warning: Multiple definitions of model "bc847b" Type: BJT
WARNING: Node NC_01 is floating.

WARNING: Less than two connections to node NC_01.  This node is used by C1.
Direct Newton iteration for .op point succeeded.

Date: Fri Apr 12 15:13:38 2024
Total elapsed time: 0.104 seconds.

tnom = 27
temp = 27
method = modified trap
totiter = 3554
traniter = 3542
tranpoints = 1750
accept = 1359
rejected = 391
matrix size = 10
fillins = 0
solver = Normal
Matrix Compiler1: 640 bytes object code size  0.2/0.2/[0.2]
Matrix Compiler2: off  [0.2]/0.2/0.2

